Version 4
SHEET 1 880 680
WIRE 208 32 0 32
WIRE 400 32 208 32
WIRE 0 64 0 32
WIRE 208 112 208 32
WIRE 400 144 336 144
WIRE 592 144 464 144
WIRE 592 176 592 144
WIRE 0 192 0 144
WIRE 208 240 208 192
WIRE 336 240 336 144
WIRE 336 240 208 240
WIRE 416 240 336 240
WIRE 592 272 592 256
WIRE 208 304 208 240
WIRE 336 304 336 240
WIRE 208 416 208 384
WIRE 336 416 336 368
FLAG 208 416 0
FLAG 0 192 0
FLAG 336 416 0
FLAG 416 240 VADC
FLAG 400 32 Vbatt
FLAG 592 272 0
SYMBOL res 192 96 R0
SYMATTR InstName R2
SYMATTR Value 20K
SYMBOL res 192 288 R0
SYMATTR InstName R3
SYMATTR Value 5K1
SYMBOL voltage 0 48 R0
WINDOW 3 -314 112 Left 2
WINDOW 123 0 0 Left 0
WINDOW 39 0 0 Left 0
SYMATTR InstName V1
SYMATTR Value PULSE(0 20 0 100ms 0 0 1)
SYMBOL cap 320 304 R0
SYMATTR InstName C1
SYMATTR Value 1nF
SYMBOL voltage 592 160 R0
WINDOW 123 0 0 Left 0
WINDOW 39 24 124 Left 2
SYMATTR InstName V2
SYMATTR Value 3.3
SYMATTR SpiceLine Rser=1
SYMBOL schottky 400 160 R270
WINDOW 0 32 32 VTop 2
WINDOW 3 0 32 VBottom 2
SYMATTR InstName D2
SYMATTR Value RB541VM-40
SYMATTR Description Diode
SYMATTR Type diode
TEXT -82 440 Left 2 !.tran 0.1
