Version 4
SHEET 1 1000 680
WIRE 208 0 208 -48
WIRE 208 0 64 0
WIRE 336 0 208 0
WIRE 528 0 432 0
WIRE 560 0 528 0
WIRE 64 32 64 0
WIRE 528 48 528 0
WIRE 208 112 208 80
WIRE 384 112 384 64
WIRE 384 112 208 112
WIRE 432 112 384 112
WIRE 64 160 64 112
WIRE 352 176 256 176
WIRE 208 192 208 112
WIRE 352 192 352 176
WIRE 528 192 528 128
WIRE 208 272 208 256
WIRE 256 272 256 176
WIRE 256 272 208 272
WIRE 352 304 352 256
WIRE 352 304 208 304
FLAG 208 304 0
FLAG 528 192 0
FLAG 64 160 0
FLAG 560 0 VOUT
FLAG 432 112 VB
FLAG 208 -48 Vin
FLAG 688 192 0
SYMBOL zener 224 256 R180
WINDOW 0 24 64 Left 2
WINDOW 3 24 0 Left 2
SYMATTR InstName D1
SYMATTR Value CDZV15B
SYMBOL res 192 -16 R0
SYMATTR InstName R1
SYMATTR Value 1000R
SYMBOL npn 336 64 R270
SYMATTR InstName Q1
SYMATTR Value 2SCR375P
SYMBOL res 512 32 R0
SYMATTR InstName R2
SYMATTR Value R=if(abs(v(VOUT)), 10, (V(VOUT)**2)/0.4)
SYMBOL voltage 64 16 R0
WINDOW 3 -201 -40 Left 2
WINDOW 123 0 0 Left 0
WINDOW 39 0 0 Left 0
SYMATTR InstName V1
SYMATTR Value PULSE(12 60 0.1 0.1 0.2 0 1)
SYMBOL zener 368 256 R180
WINDOW 0 24 64 Left 2
WINDOW 3 24 0 Left 2
SYMATTR InstName D2
SYMATTR Value CDZV15B
TEXT -138 264 Left 2 !.tran .5
